Sistemas teste e codigos/ED_piorCaso/Sistemas/229bus_NEsystem_fcConvergido.cdf
 0 /0 /0  SISTEMA NORDESTE DE   100.0                                                                                         
BUS DATA FOLLOWS                       229 ITEMS                                                                              
 101  CQBRD1EOL03  3     0  0.928   47.1    -34.8         0     0.0     0.0     1.0            0.0     0.0     0.0     0.0  0.0
 102  BVENTSEOL03  3     0  0.938   48.4    -30.5         0     0.0     0.0     1.0            0.0     0.0     0.0     0.0  0.0
 103  ENACELEOL03  3     0  0.927   47.1    -19.2         0     0.0     0.0     1.0            0.0     0.0     0.0     0.0  0.0
 104   ARACT2CE03  3     0  0.925   46.8      0.0       0.0     0.0     0.0     1.0            0.0     0.0     0.0     0.0  0.0
 105   ARACT2CE23  3     0  0.933   39.8      0.0       0.0     0.0     0.0     1.0            0.0     0.0     0.0     0.0  0.0
 106   RUSSA2CE23  3     0  0.934   36.6      0.0       0.0     0.0     0.0     1.0            0.0     0.0     0.0     0.0  0.0
 107   RUSSASCE06  3     0  0.934   36.6     54.4       7.8     0.0     0.0     1.0            0.0     0.0     0.0     0.0  0.0
 108   BANABUCE23  3     0  0.940   38.3     11.9       2.4     0.0     0.0     1.0            0.0     0.0     0.0     0.0  0.0
 109   BANABUCE06  3     0  0.939   38.2     62.2       8.9     0.0     0.0     1.0            0.0     0.0     0.0     0.0  0.0
 110   QUIXERCE23  3     0  0.934   34.8      0.0       0.0     0.0     0.0     1.0            0.0     0.0     0.0     0.0  0.0
 111   MOSSR2RN23  3     0  0.935   33.5      0.0       0.0     0.0     0.0     1.0            0.0     0.0     0.0     0.0  0.0
 112   MOSSORRN06  3     0  0.929   31.5     92.3      15.8     0.0     0.0     1.0            0.0     0.0     0.0     0.0  0.0
 113   CARCA2RN23  3     0  0.935   33.5      0.0       0.0     0.0     0.0     1.0            0.0     0.0     0.0     0.0  0.0
 114   CARCA2RN01  3     0  0.935   33.5      0.0       0.0     0.0     0.0     1.0            0.0     0.0     0.0     0.0  0.0
 115   A.BRANRN23  3     0  0.937   34.1      0.0       0.0     0.0     0.0     1.0            0.0     0.0     0.0     0.0  0.0
 116   ABRAB1RN03  3     0  0.935   37.4      0.0       0.0     0.0     0.0     1.0            0.0     0.0     0.0     0.0  0.0
 117  A.BRANEOL03  3     0  0.938   37.7    -16.7         0     0.0     0.0     1.0            0.0     0.0     0.0     0.0  0.0
 118  MARTEREOL03  3     0  0.938   37.7      -14         0     0.0     0.0     1.0            0.0     0.0     0.0     0.0  0.0
 119  COLONIEOL03  3     0  0.994   48.4    -11.6         0     0.0     0.0     1.0            0.0     0.0     0.0     0.0  0.0
 120  T.ANDOEOL03  3     0  0.997   48.8      -14         0     0.0     0.0     1.0            0.0     0.0     0.0     0.0  0.0
 121  T.AGUIEOL03  3     0  0.994   48.4     -9.2         0     0.0     0.0     1.0            0.0     0.0     0.0     0.0  0.0
 122   CTAIBACE03  3     0  0.992   48.1      0.0       0.0     0.0     0.0     1.0            0.0     0.0     0.0     0.0  0.0
 123   CTAIBACE23  3     0  0.992   48.1      0.0       0.0     0.0     0.0     1.0            0.0     0.0     0.0     0.0  0.0
 124   PECEM2CE23  3     0  0.991   47.9      0.0       0.0     0.0     0.0     1.0            0.0     0.0     0.0     0.0  0.0
 125   PECEM2CE06  3     0  0.991   47.9      5.1         1     0.0     0.0     1.0            0.0     0.0     0.0     0.0  0.0
 126   PECEM2CE50  3     0  0.988   45.3      0.0       0.0     0.0     0.0     1.0            0.0     0.0     0.0     0.0  0.0
 127   FORTALCE50  3     0  0.980   42.6      0.0       0.0     0.0     0.0     1.0            0.0     0.0     0.0     0.0  0.0
 128   FORTA2CE23  3     0  0.978   41.6      0.0       0.0     0.0     0.0     1.0            0.0     0.0     0.0     0.0  0.0
 129   ENPECECE23  3     0  0.993   48.8     20.4       9.9     0.0     0.0     1.0            0.0     0.0     0.0     0.0  0.0
 130   ENPECECE06  3     0  0.992   48.4      5.1         1     0.0     0.0     1.0            0.0     0.0     0.0     0.0  0.0
 131    ENPECCE23  3     0  0.993   48.9      0.0       0.0     0.0     0.0     1.0            0.0     0.0     0.0     0.0  0.0
 132  ENPECEUTE02  3     2  1.000   52.3      0.0       0.0     504   63.29     1.0            244    -244     0.0     0.1  0.0
 133   ENPECUTE02  3     2  1.000   50.6      0.0       0.0     255   52.04     1.0            124    -124     0.0     0.1  0.0
 134      CSPCE23  3     0  0.992   47.9      0.0       0.0     0.0     0.0     1.0            0.0     0.0     0.0     0.0  0.0
 135     CSPUTE01  3     2  1.000   49.2      0.0       0.0     153   61.07     1.0             74     -74     0.0     0.0  0.0
 136   D.GOUVCE23  3     0  0.976   41.4      0.0       0.0     0.0     0.0     1.0            0.0     0.0     0.0     0.0  0.0
 137   D.GOUBCE06  3     0  0.967   38.8    143.2      20.4     0.0     0.0     1.0            0.0     0.0     0.0     0.0  0.0
 138     PICICE23  3     0  0.968   40.3      0.0       0.0     0.0     0.0     1.0            0.0     0.0     0.0     0.0  0.0
 139     PICICE06  3     0  0.968   40.2    228.7      46.4     0.0     0.0     1.0            0.0     0.0     0.0     0.0  0.0
 140   CAUIPECE23  3     0  0.999   44.6      0.0       0.0     0.0     0.0     1.0            0.0     0.0     0.0     0.0  0.0
 141   CAUIPECE06  3     0  0.992   42.1    104.3      14.9     0.0     0.0     1.0            0.0     0.0     0.0     0.0  0.0
 142   UTEFORCE23  3     2  1.000   44.7      0.0       0.0     229   90.16     1.0            111    -111     0.0     0.0  0.0
 143   UTECEACE23  3     2  1.000     45      0.0       0.0     156   20.39     1.0             76     -76     0.0     0.0  0.0
 144   MARAC2CE23  3     0  0.978   41.7      0.0       0.0     0.0     0.0     1.0            0.0     0.0     0.0     0.0  0.0
 145  MARAC2UTE01  3     2  1.000   50.7      0.0       0.0     114   25.12     1.0             55     -55     0.0     0.0  0.0
 146   FORTALCE23  3     0  0.977   41.6      0.0       0.0     0.0     0.0     1.0            0.0     0.0     0.0     0.0  0.0
 147   FORTALCE06  3     0  0.966   38.9    134.4      33.7     0.0     0.0     1.0            0.0     0.0     0.0     0.0  0.0
 148   AQUIRACE23  3     0  0.962   38.5      0.0       0.0     0.0     0.0     1.0            0.0     0.0     0.0     0.0  0.0
 149   AQUIRACE06  3     0  0.951   35.8    189.2      38.5     0.0     0.0     1.0            0.0     0.0     0.0     0.0  0.0
 150   QUIXADCE50  3     0  0.969   36.8      0.0       0.0     0.0     0.0     1.0            0.0     0.0     0.0     0.0  0.0
 151   TRAIRICE23  3     0  0.996   49.2      0.0       0.0     0.0     0.0     1.0            0.0     0.0     0.0     0.0  0.0
 152   TRAIRICE03  3     0  0.990   54.3      0.0       0.0     0.0     0.0     1.0            0.0     0.0     0.0     0.0  0.0
 153  MUNDAUEOL03  3     0  0.998   55.4    -18.3         0     0.0     0.0     1.0            0.0     0.0     0.0     0.0  0.0
 154  FLEXE1EOL03  3     0  0.997   55.3    -18.3         0     0.0     0.0     1.0            0.0     0.0     0.0     0.0  0.0
 155  TRAIRIEOL03  3     0  0.991   54.4    -15.3         0     0.0     0.0     1.0            0.0     0.0     0.0     0.0  0.0
 156   GUAJIEOL03  3     0  1.003   56.2    -18.3         0     0.0     0.0     1.0            0.0     0.0     0.0     0.0  0.0
 157  SCRISTEOL03  3     0  1.005   53.6    -15.9         0     0.0     0.0     1.0            0.0     0.0     0.0     0.0  0.0
 158  SJORGEEOL03  3     0  1.005   53.5    -14.6         0     0.0     0.0     1.0            0.0     0.0     0.0     0.0  0.0
 159  SANTPAEOL03  3     0  1.000   52.6     -8.5         0     0.0     0.0     1.0            0.0     0.0     0.0     0.0  0.0
 160   CFAISACE23  3     0  0.998   50.2      0.0       0.0     0.0     0.0     1.0            0.0     0.0     0.0     0.0  0.0
 161   CFAISACE03  3     0  0.997     52      0.0       0.0     0.0     0.0     1.0            0.0     0.0     0.0     0.0  0.0
 162   SANTOSCE03  3     0  0.996   51.9      0.0       0.0     0.0     0.0     1.0            0.0     0.0     0.0     0.0  0.0
 163  FAISA4EOL03  3     0  1.000   52.5    -15.3         0     0.0     0.0     1.0            0.0     0.0     0.0     0.0  0.0
 164  FAISA5EOL03  3     0  1.000   52.5    -17.7         0     0.0     0.0     1.0            0.0     0.0     0.0     0.0  0.0
 165  FAISA3EOL03  3     0  0.998   52.1    -15.3         0     0.0     0.0     1.0            0.0     0.0     0.0     0.0  0.0
 166  EMBUACEOL03  3     0  1.011   54.1    -16.5         0     0.0     0.0     1.0            0.0     0.0     0.0     0.0  0.0
 167  FAISA1EOL03  3     0  0.999   52.3    -17.7         0     0.0     0.0     1.0            0.0     0.0     0.0     0.0  0.0
 168  FAISA2EOL03  3     0  0.999   52.3    -16.5         0     0.0     0.0     1.0            0.0     0.0     0.0     0.0  0.0
 169   SOBRA3CE23  3     0  0.985   46.1      0.0       0.0     0.0     0.0     1.0            0.0     0.0     0.0     0.0  0.0
 170   SOBRALCE23  3     0  0.982   45.6     23.5      10.1     0.0     0.0     1.0            0.0     0.0     0.0     0.0  0.0
 171   ACARA2CE23  3     0  0.987   46.7      0.0       0.0     0.0     0.0     1.0            0.0     0.0     0.0     0.0  0.0
 172   ACA2B2CE06  3     0  0.987   46.8     23.4       3.4     0.0     0.0     1.0            0.0     0.0     0.0     0.0  0.0
 173   VLTRIOCE06  3     0  0.989   48.6      0.0       0.0     0.0     0.0     1.0            0.0     0.0     0.0     0.0  0.0
 174  VLTRIOEOL03  3     0  0.988   51.3    -20.5         0     0.0     0.0     1.0            0.0     0.0     0.0     0.0  0.0
 175   PMRGDOCE06  3     0  0.991   48.1      0.0       0.0     0.0     0.0     1.0            0.0     0.0     0.0     0.0  0.0
 176  PMRGD0EOL03  3     0  0.990   50.8      -14         0     0.0     0.0     1.0            0.0     0.0     0.0     0.0  0.0
 177   PAPAGACE06  3     0  0.988   47.4      0.0       0.0     0.0     0.0     1.0            0.0     0.0     0.0     0.0  0.0
 178   ITAREMCE23  3     0  0.987   46.7      0.0       0.0     0.0     0.0     1.0            0.0     0.0     0.0     0.0  0.0
 179   MASSAPCE23  3     0  0.989   46.5      0.0       0.0     0.0     0.0     1.0            0.0     0.0     0.0     0.0  0.0
 180   PFORMOCE23  3     0  0.995     48      0.0       0.0     0.0     0.0     1.0            0.0     0.0     0.0     0.0  0.0
 181   PFORMOCE03  3     0  0.994   50.5      0.0       0.0     0.0     0.0     1.0            0.0     0.0     0.0     0.0  0.0
 182  PFORMOEOL03  3     0  0.995   50.8    -51.2         0     0.0     0.0     1.0            0.0     0.0     0.0     0.0  0.0
 183   ICARAZCE23  3     0  0.993   47.3      0.0       0.0     0.0     0.0     1.0            0.0     0.0     0.0     0.0  0.0
 184   ICARAZCE03  3     0  0.992   49.9      0.0       0.0     0.0     0.0     1.0            0.0     0.0     0.0     0.0  0.0
 185  ICARAZEOL03  3     0  0.994   50.1    -26.8         0     0.0     0.0     1.0            0.0     0.0     0.0     0.0  0.0
 186  ARARASEOL03  3     0  0.987   50.8    -14.6         0     0.0     0.0     1.0            0.0     0.0     0.0     0.0  0.0
 187   SOBRA3CE50  3     0  0.989   45.8      0.0       0.0     0.0     0.0     1.0            0.0     0.0     0.0     0.0  0.0
 188   SOBRALCE06  3     0  0.946   36.2    115.7      16.5     0.0     0.0     1.0            0.0     0.0     0.0     0.0  0.0
 189   ITAREMCE03  3     0  0.987   46.7      0.0       0.0     0.0     0.0     1.0            0.0     0.0     0.0     0.0  0.0
 190  ICARA1EOL03  3     0  0.988   56.8    -16.5         0     0.0     0.0     1.0            0.0     0.0     0.0     0.0  0.0
 191  ICARA2EOL03  3     0  0.985   56.4    -23.2         0     0.0     0.0     1.0            0.0     0.0     0.0     0.0  0.0
 192  I.GRANEOL03  3     0  1.001   58.3    -18.3         0     0.0     0.0     1.0            0.0     0.0     0.0     0.0  0.0
 193  B.CORREOL03  3     0  0.990     57    -14.6         0     0.0     0.0     1.0            0.0     0.0     0.0     0.0  0.0
 194  RIBEIREOL03  3     0  0.988   56.8    -13.4         0     0.0     0.0     1.0            0.0     0.0     0.0     0.0  0.0
 195   ICARAICE03  3     0  0.979   55.8      0.0       0.0     0.0     0.0     1.0            0.0     0.0     0.0     0.0  0.0
 196   ICARAICE23  3     0  0.989   48.6      0.0       0.0     0.0     0.0     1.0            0.0     0.0     0.0     0.0  0.0
 197   POTI1UTE01  3     2  1.000   30.5      0.0       0.0      37   6.583     1.0             18     -18     0.0     0.0  0.0
 198   POTI3UTE01  3     2  1.000   30.9      0.0       0.0      39   6.857     1.0             19     -19     0.0     0.0  0.0
 199     POTGTRN6  3     0  0.985   22.9      0.0       0.0     0.0     0.0     1.0            0.0     0.0     0.0     0.0  0.0
 200   NATAL3RN06  3     0  0.974   20.1     96.7      14.9     0.0     0.0     1.0            0.0     0.0     0.0     0.0  0.0
 201   NATAL3RN23  3     0  0.985     21      0.0       0.0     0.0     0.0     1.0            0.0     0.0     0.0     0.0  0.0
 202   NATAL2RN23  3     0  0.987     21      0.0       0.0     0.0     0.0     1.0            0.0     0.0     0.0     0.0  0.0
 203   NATAL2RN06  3     0  0.986   20.9    121.8      15.2     0.0     0.0     1.0            0.0     0.0     0.0     0.0  0.0
 204   EXTRE2RN23  3     0  0.984   20.6      0.0       0.0     0.0     0.0     1.0            0.0     0.0     0.0     0.0  0.0
 205   EXTREMRN06  3     0  0.974   16.6    102.3      11.4     0.0     0.0     1.0            0.0     0.0     0.0     0.0  0.0
 206  C.GRDEUTE01  3     2  1.000   25.7      0.0       0.0     118   7.965     1.0             57     -57     0.0     0.0  0.0
 207   CGRAN1PB23  3     0  0.996   19.4      0.0       0.0     0.0     0.0     1.0            0.0     0.0     0.0     0.0  0.0
 208    CGRANPB06  3     0  0.998   21.5      0.0       0.0     0.0     0.0     1.0            0.0     0.0     0.0     0.0  0.0
 209  C.GRAN3PB23  3     0  0.999   19.4      0.0       0.0     0.0     0.0     1.0            0.0     0.0     0.0     0.0  0.0
 210  C.GRAN3PB50  3     0  1.006   19.5      0.0       0.0     0.0     0.0     1.0            0.0     0.0     0.0     0.0  0.0
 211   TACAIMPE23  3     0  0.989   18.4      0.0       0.0     0.0     0.0     1.0            0.0     0.0     0.0     0.0  0.0
 212   TACAIMPE06  3     0  0.989   18.3     96.2      14.8     0.0     0.0     1.0            0.0     0.0     0.0     0.0  0.0
 213   PARAISRN23  3     0  0.980   21.2      0.0       0.0     0.0     0.0     1.0            0.0     0.0     0.0     0.0  0.0
 214   PARAISRN13  3     0  0.979   21.2       51      10.2     0.0     0.0     1.0            0.0     0.0     0.0     0.0  0.0
 215   COTEMIPE23  3     0  0.996   19.3       33      10.8     0.0     0.0     1.0            0.0     0.0     0.0     0.0  0.0
 216   LIMOEIPE06  3     0  0.995   18.1       51      10.2     0.0     0.0     1.0            0.0     0.0     0.0     0.0  0.0
 217   LIMOEIPE23  3     0  0.995   18.1      0.0       0.0     0.0     0.0     1.0            0.0     0.0     0.0     0.0  0.0
 218  PAUFERUTE01  3     2  1.000   18.4      0.0       0.0      66   70.91     1.0             32     -32     0.0     0.0  0.0
 219    PAUFEPE23  3     0  0.998   18.3      0.0       0.0     0.0     0.0     1.0            0.0     0.0     0.0     0.0  0.0
 220    PAUFEPE50  3     0  0.993   19.7      0.0       0.0     0.0     0.0     1.0            0.0     0.0     0.0     0.0  0.0
 221    PAUFEPE06  3     0  0.997   18.2      176      47.8     0.0     0.0     1.0            0.0     0.0     0.0     0.0  0.0
 222  PERNA3UTE01  3     2  1.000   18.3      0.0       0.0     141   313.7     1.0             68     -68     0.0     0.0  0.0
 223   PERNA3PE23  3     0  0.998   18.3      0.0       0.0     0.0     0.0     1.0            0.0     0.0     0.0     0.0  0.0
 224  MANAUSUTE01  3     2  1.000   22.5      0.0       0.0     100    4.83     1.0             48     -48     0.0     0.0  0.0
 225   ALDEIAPE23  3     0  0.999   18.3      0.0       0.0     0.0     0.0     1.0            0.0     0.0     0.0     0.0  0.0
 226   GOIANIPE23  3     0  0.980     17      0.0       0.0     0.0     0.0     1.0            0.0     0.0     0.0     0.0  0.0
 227   GOIANIPE06  3     0  0.980     17    138.4      56.9     0.0     0.0     1.0            0.0     0.0     0.0     0.0  0.0
 228   ALHANDRN06  3     0  0.980     17      0.0       0.0     0.0     0.0     1.0            0.0     0.0     0.0     0.0  0.0
 229  TERMNEUTE01  3     2  1.000     22      0.0       0.0     113   34.51     1.0             55     -55     0.0     0.0  0.0
 230  TERMPBUTE01  3     2  1.000     22      0.0       0.0     113   34.51     1.0             55     -55     0.0     0.0  0.0
 231   UTEMUSPB23  3     0  0.976   16.7      0.0       0.0     0.0     0.0     1.0            0.0     0.0     0.0     0.0  0.0
 232   MUSSURPB23  3     0  0.976   16.6      0.0       0.0     0.0     0.0     1.0            0.0     0.0     0.0     0.0  0.0
 233   MUSSURPB06  3     0  0.975   16.5    205.2      53.2     0.0     0.0     1.0            0.0     0.0     0.0     0.0  0.0
 234    STARIPB23  3     0  0.978   16.6      0.0       0.0     0.0     0.0     1.0            0.0     0.0     0.0     0.0  0.0
 235   SANTARPB06  3     0  0.939   8.48    139.4      29.1     0.0     0.0     1.0            0.0     0.0     0.0     0.0  0.0
 236   NORFILPB23  3     0  0.976   16.6     62.3      20.5     0.0     0.0     1.0            0.0     0.0     0.0     0.0  0.0
 237   PIRAUAPE06  3     0  0.980     17      0.0       0.0     0.0     0.0     1.0            0.0     0.0     0.0     0.0  0.0
 238   MIRUE2PE23  3     0  0.993   17.6      0.0       0.0     0.0     0.0     1.0            0.0     0.0     0.0     0.0  0.0
 239   MIRUE2PE06  3     0  0.980   13.2     85.1      11.7     0.0     0.0     1.0            0.0     0.0     0.0     0.0  0.0
 240   RECIFEPE23  3     0  0.976   18.8      0.0       0.0     0.0     0.0     1.0            0.0     0.0     0.0     0.0  0.0
 241   RECIFEPE50  3     0  0.983   20.2      0.0       0.0     0.0     0.0     1.0            0.0     0.0     0.0     0.0  0.0
 242   JOAIRAPE23  3     0  0.973   18.3      0.0       0.0     0.0     0.0     1.0            0.0     0.0     0.0     0.0  0.0
 243   JOAIRAPE06  3     0  0.973   18.2    131.1      -5.5     0.0     0.0     1.0            0.0     0.0     0.0     0.0  0.0
 244    BONGIPE23  3     0  0.970   17.8     12.6       6.8     0.0     0.0     1.0            0.0     0.0     0.0     0.0  0.0
 245   MIRUE1PE23  3     0  0.969   17.8      5.9       0.3     0.0     0.0     1.0            0.0     0.0     0.0     0.0  0.0
 246   MIRUE1PE06  3     0  0.956   13.2    164.8      21.4     0.0     0.0     1.0            0.0     0.0     0.0     0.0  0.0
 247   JABOATPE23  3     0  0.969   19.5      0.0       0.0     0.0     0.0     1.0            0.0     0.0     0.0     0.0  0.0
 248   JABOATPE06  3     0  0.949   15.9     87.5      25.7     0.0     0.0     1.0            0.0     0.0     0.0     0.0  0.0
 249   RIBEIRPE23  3     0  0.973   17.4      0.0       0.0     0.0     0.0     1.0            0.0     0.0     0.0     0.0  0.0
 250   RIBEIRPE06  3     0  0.973   17.3    137.6      23.1     0.0     0.0     1.0            0.0     0.0     0.0     0.0  0.0
 251    BONGIPE06  3     0  0.949   11.1    240.5      29.3     0.0     0.0     1.0            0.0     0.0     0.0     0.0  0.0
 252   GARANHPE50  3     0  0.996   19.7      0.0       0.0     0.0     0.0     1.0            0.0     0.0     0.0     0.0  0.0
 253   GARANHPE23  3     0  0.994   19.4      0.0       0.0     0.0     0.0     1.0            0.0     0.0     0.0     0.0  0.0
 254   SCLEMEPE23  3     0  0.994   19.4      0.0       0.0     0.0     0.0     1.0            0.0     0.0     0.0     0.0  0.0
 255   SCLEMEPE03  3     0  0.994   19.4      0.0       0.0     0.0     0.0     1.0            0.0     0.0     0.0     0.0  0.0
 256   PARAN1PE23  3     0  0.994   19.4      0.0       0.0     0.0     0.0     1.0            0.0     0.0     0.0     0.0  0.0
 257   PARAN1PE03  3     0  0.994   19.4      0.0       0.0     0.0     0.0     1.0            0.0     0.0     0.0     0.0  0.0
 258   CAETE2PE23  3     0  0.994   19.4      0.0       0.0     0.0     0.0     1.0            0.0     0.0     0.0     0.0  0.0
 259   CAETE2PE03  3     0  0.994   19.4      0.0       0.0     0.0     0.0     1.0            0.0     0.0     0.0     0.0  0.0
 260   ANGELIPE23  3     0  0.992   19.2      0.0       0.0     0.0     0.0     1.0            0.0     0.0     0.0     0.0  0.0
 261   ANGELIPE06  3     0  0.992   19.1     68.1      -8.5     0.0     0.0     1.0            0.0     0.0     0.0     0.0  0.0
 262   ANGELIPE01  3     0  0.992     19        2       0.7     0.0     0.0     1.0            0.0     0.0     0.0     0.0  0.0
 263   ANGEL2PE50  3     0  0.994   19.5      0.0       0.0     0.0     0.0     1.0            0.0     0.0     0.0     0.0  0.0
 264   ABAIXABA06  3     0  0.993   21.7      6.5       1.1     0.0     0.0     1.0            0.0     0.0     0.0     0.0  0.0
 265  PAF2A1UHE01  3     2  1.000     24      0.0       0.0      24   4.865     1.0             11     -11     0.0     0.0  0.0
 266  PAF2A2UHE01  3     2  1.000   24.1      0.0       0.0      24   4.653     1.0             11     -11     0.0     0.0  0.0
 267  PAF2A3UHE01  3     2  1.000   24.9      0.0       0.0      24   3.606     1.0             11     -11     0.0     0.0  0.0
 268  PAF2B1UHE01  3     2  1.000   23.9      0.0       0.0      24   5.223     1.0             11     -11     0.0     0.0  0.0
 269  PAF2B2UHE01  3     2  1.000   24.3      0.0       0.0      24   4.279     1.0             11     -11     0.0     0.0  0.0
 270  PAF2B3UHE01  3     2  1.000   24.3      0.0       0.0      24   4.336     1.0             11     -11     0.0     0.0  0.0
 271   TACARAPE23  3     0  0.998   22.1      0.0       0.0     0.0     0.0     1.0            0.0     0.0     0.0     0.0  0.0
 272   TACARAPE03  3     0  0.998   22.1      0.0       0.0     0.0     0.0     1.0            0.0     0.0     0.0     0.0  0.0
 273   ZEBUIIAL23  3     0  0.994   22.5      0.0       0.0     0.0     0.0     1.0            0.0     0.0     0.0     0.0  0.0
 274   ZEBUIIAL06  3     0  0.994   22.5      0.0       0.0     0.0     0.0     1.0            0.0     0.0     0.0     0.0  0.0
 275   FLORIIPE23  3     0  0.993   21.5      100         0     0.0     0.0     1.0            0.0     0.0     0.0     0.0  0.0
 276    PAF3ABA23  3     0  0.994   22.1      2.1       0.7     0.0     0.0     1.0            0.0     0.0     0.0     0.0  0.0
 277    PAF3BBA23  3     0  0.995   22.7      0.0       0.0     0.0     0.0     1.0            0.0     0.0     0.0     0.0  0.0
 278  ASALE1UHE01  3     2  1.000   26.7      0.0       0.0      64   6.851     1.0             31     -31     0.0     0.0  0.0
 279   ASALEAAL23  3     0  0.995   22.4      0.0       0.0     0.0     0.0     1.0            0.0     0.0     0.0     0.0  0.0
 280  ASALE2UHE01  3     2  1.000   27.3      0.0       0.0      64   6.251     1.0             31     -31     0.0     0.0  0.0
 281   ASALEBAL23  3     0  0.995   22.9      0.0       0.0     0.0     0.0     1.0            0.0     0.0     0.0     0.0  0.0
 282   PAF11UHE01  3     2  1.000   29.8      0.0       0.0      58   6.091     1.0             28     -28     0.0     0.0  0.0
 283   PAF31UHE01  3     2  1.000   30.9      0.0       0.0     254   27.62     1.0            123    -123     0.0     0.0  0.0
 284   PAF32UHE01  3     2  1.000   31.6      0.0       0.0     254   28.43     1.0            123    -123     0.0     0.0  0.0
 285  SOBRA1UHE01  3     2  1.000     27      0.0       0.0     337   -67.3     1.0            163    -163     0.0     0.0  0.0
 286   SOBRADBA50  3     0  1.015   23.4      0.0       0.0     0.0     0.0     1.0            0.0     0.0     0.0     0.0  0.0
 287   SOBRADBA23  3     0  1.007   20.8      0.0       0.0     0.0     0.0     1.0            0.0     0.0     0.0     0.0  0.0
 288  LGONZ1UHE01  3     2  1.000   27.2      0.0       0.0     474   41.13     1.0            229    -229     0.0     0.0  0.0
 289  LGONZ2UHE01  3     2  1.000   27.2      0.0       0.0     474   41.13     1.0            229    -229     0.0     0.0  0.0
 290   LGONZAPE00  3     0  0.996   21.5      0.0       0.0     0.0     0.0     1.0            0.0     0.0     0.0     0.0  0.0
 291   L.GONZPE50  3     0  0.996   21.7      0.0       0.0     0.0     0.0     1.0            0.0     0.0     0.0     0.0  0.0
 292     PAF4BA50  3     0  0.989   19.9      0.0       0.0     0.0     0.0     1.0            0.0     0.0     0.0     0.0  0.0
 293   PAF41UHE01  3     2  1.000     24      0.0       0.0     788   155.3     1.0            382    -382     0.0     0.0  0.0
 294  XINGO1UHE01  3     3  1.000      0      0.0       0.0   -3166   741.4     1.0          99999   -9999     0.0     0.0  0.0
 295    XINGOSE50  3     0  0.975   15.6      0.0       0.0     0.0     0.0     1.0            0.0     0.0     0.0     0.0  0.0
 296    CABOUTE01  3     2  1.000   35.9      0.0       0.0     105   28.73     1.0             51     -51     0.0     0.0  0.0
 297   PIRAPAPE06  3     0  0.966   23.3     95.9      32.3     0.0     0.0     1.0            0.0     0.0     0.0     0.0  0.0
 298   VITORIPE06  3     0  0.961   22.9      0.0       0.0     0.0     0.0     1.0            0.0     0.0     0.0     0.0  0.0
 299   VITORIPE01  3     0  0.960   22.5      5.1         1     0.0     0.0     1.0            0.0     0.0     0.0     0.0  0.0
 300   PIRAPAPE23  3     0  0.966   23.3      0.0       0.0     0.0     0.0     1.0            0.0     0.0     0.0     0.0  0.0
...
-999
BRANCH DATA FOLLOWS                    421 ITEMS                                                                              
 101  104              0.0365      0.067     3e-05                             0.0     0.0                                    
 101  104              0.0365      0.067     3e-05                             0.0     0.0                                    
 101  104              0.0365      0.067     3e-05                             0.0     0.0                                    
 101  104              0.0365      0.067     3e-05                             0.0     0.0                                    
 101  104              0.0365      0.067     3e-05                             0.0     0.0                                    
 102  104              0.2093     0.3835   0.00018                             0.0     0.0                                    
 102  104              0.2093     0.3835   0.00018                             0.0     0.0                                    
 102  104              0.2093     0.3835   0.00018                             0.0     0.0                                    
 102  104              0.2093     0.3835   0.00018                             0.0     0.0                                    
 102  104              0.2093     0.3835   0.00018                             0.0     0.0                                    
 103  104              0.0332     0.0609     3e-05                             0.0     0.0                                    
 103  104              0.0332     0.0609     3e-05                             0.0     0.0                                    
 103  104              0.0332     0.0609     3e-05                             0.0     0.0                                    
 104  105                 0.0      0.125       0.0                             0.0     0.0                                    
 105  106              0.0076     0.0576     0.026                             0.0     0.0                                    
 106  107                 0.0     0.1242       0.0                             0.0     0.0                                    
 106  107                 0.0     0.0013       0.0                             0.0     0.0                                    
 106  107                 0.0     0.1302       0.0                             0.0     0.0                                    
 106  108              0.0201     0.1077    0.0465                             0.0     0.0                                    
 106  108              0.0145     0.0748    0.0668                             0.0     0.0                                    
 106  110              0.0055     0.0294    0.0127                             0.0     0.0                                    
 108  109                 0.0     0.1327       0.0                             0.0     0.0                                    
 108  109                 0.0     0.1327       0.0                             0.0     0.0                                    
 108  109                 0.0     0.0026       0.0                             0.0     0.0                                    
 108  109                 0.0     0.1327       0.0                             0.0     0.0                                    
 108  148              0.0285     0.0012   0.11005                             0.0     0.0                                    
 108  148              0.0285     0.0012   0.11005                             0.0     0.0                                    
 108  148              0.0285     0.0012   0.11005                             0.0     0.0                                    
 110  111              0.0083     0.0442   0.01905                             0.0     0.0                                    
 110  111              0.0083     0.0442   0.01905                             0.0     0.0                                    
 111  108              0.0321     0.1654   0.07835                             0.0     0.0                                    
 111  108              0.0321     0.1654   0.07835                             0.0     0.0                                    
 111  112                 0.0     0.1297       0.0                             0.0     0.0                                    
 111  112                 0.0     0.1297       0.0                             0.0     0.0                                    
 111  112                 0.0     0.1328       0.0                             0.0     0.0                                    
 111  112                 0.0     0.1328       0.0                             0.0     0.0                                    
 111  113              0.0052     0.0345   0.03253                             0.0     0.0                                    
 111  113              0.0052     0.0345   0.03253                             0.0     0.0                                    
 111  115              0.0158      0.058    0.0252                             0.0     0.0                                    
 111  115              0.0158      0.058    0.0252                             0.0     0.0                                    
 113  114                 0.0      0.001       0.0                             0.0     0.0                                    
 115  116                 0.0     0.1667       0.0                             0.0     0.0                                    
 116  117              0.0252     0.0462     3e-05                             0.0     0.0                                    
 116  117              0.0252     0.0462     3e-05                             0.0     0.0                                    
 116  118               0.029     0.0532     3e-05                             0.0     0.0                                    
 116  118               0.029     0.0532     3e-05                             0.0     0.0                                    
 122  119               0.035     0.0875     5e-05                             0.0     0.0                                    
 122  119               0.035     0.0875     5e-05                             0.0     0.0                                    
 122  120              0.0673     0.1682     8e-05                             0.0     0.0                                    
 122  120              0.0673     0.1682     8e-05                             0.0     0.0                                    
 122  121              0.0417     0.1043     5e-05                             0.0     0.0                                    
 122  121              0.0417     0.1043     5e-05                             0.0     0.0                                    
 122  123                 0.0      0.002       0.0                             0.0     0.0                                    
 124  123              0.0021     0.0102   0.00468                             0.0     0.0                                    
 124  125                 0.0      0.013       0.0                             0.0     0.0                                    
 124  126                 0.0     0.0117       0.0                             0.0     0.0                                    
 124  126                 0.0     0.0117       0.0                             0.0     0.0                                    
 124  126                 0.0     0.0117       0.0                             0.0     0.0                                    
 124  151              0.0177     0.0651   0.02855                             0.0     0.0                                    
 124  151              0.0177     0.0651   0.02855                             0.0     0.0                                    
 124  160               0.012     0.0576   0.02638                             0.0     0.0                                    
 124  160               0.012     0.0576   0.02638                             0.0     0.0                                    
 126  127              0.0005     0.0081    0.2975                             0.0     0.0                                    
 126  127              0.0005     0.0078    0.2875                             0.0     0.0                                    
 128  127                 0.0     0.0127       0.0                             0.0     0.0                                    
 128  127                 0.0     0.0127       0.0                             0.0     0.0                                    
 128  127                 0.0     0.0127       0.0                             0.0     0.0                                    
 128  127                 0.0     0.0127       0.0                             0.0     0.0                                    
 128  136              0.0006     0.0049   0.00435                             0.0     0.0                                    
 128  136              0.0006     0.0049   0.00435                             0.0     0.0                                    
 128  138               0.004     0.0193   0.01605                             0.0     0.0                                    
 128  138               0.004     0.0193   0.01605                             0.0     0.0                                    
 128  140              0.0053     0.0372    0.0367                             0.0     0.0                                    
 128  140              0.0053     0.0372    0.0367                             0.0     0.0                                    
 128  146              0.0001     0.0002   0.00015                             0.0     0.0                                    
 128  146              0.0001     0.0002   0.00015                             0.0     0.0                                    
 128  146              0.0001     0.0003   0.00015                             0.0     0.0                                    
 129  124                 0.0     0.0067   0.00228                             0.0     0.0                                    
 129  124                 0.0     0.0067   0.00228                             0.0     0.0                                    
 129  124                 0.0     0.0067   0.00228                             0.0     0.0                                    
 130  129                 0.0     0.1429       0.0                             0.0     0.0                                    
 131  129                 0.0     0.0001     8e-05                             0.0     0.0                                    
 131  129                 0.0     0.0001     8e-05                             0.0     0.0                                    
 132  131                 0.0     0.0118       0.0                             0.0     0.0                                    
 133  131                 0.0     0.0118       0.0                             0.0     0.0                                    
 134  124              0.0002      0.001   0.00043                             0.0     0.0                                    
 134  124              0.0002      0.001   0.00043                             0.0     0.0                                    
 135  134                 0.0     0.0139       0.0                             0.0     0.0                                    
 136  137                 0.0     0.1247       0.0                             0.0     0.0                                    
 136  137                 0.0     0.1247       0.0                             0.0     0.0                                    
 136  137                 0.0     0.1247       0.0                             0.0     0.0                                    
 136  137                 0.0     0.1247       0.0                             0.0     0.0                                    
 138  139                 0.0     0.0013       0.0                             0.0     0.0                                    
 138  139                 0.0     0.0013       0.0                             0.0     0.0                                    
 138  139                 0.0     0.1325       0.0                             0.0     0.0                                    
 138  139                 0.0     0.1319       0.0                             0.0     0.0                                    
 138  139                 0.0     0.1326       0.0                             0.0     0.0                                    
 140  141                 0.0     0.1272       0.0                             0.0     0.0                                    
 140  141                 0.0     0.1272       0.0                             0.0     0.0                                    
 140  141                 0.0     0.1272       0.0                             0.0     0.0                                    
 140  143                 0.0     0.0042       0.0                             0.0     0.0                                    
 142  140              0.0001     0.0016   0.00085                             0.0     0.0                                    
 142  140              0.0001     0.0016   0.00085                             0.0     0.0                                    
 144  128              0.0005     0.0005       0.0                             0.0     0.0                                    
 144  145                 0.0     0.1357       0.0                             0.0     0.0                                    
 146  147                 0.0     0.1327       0.0                             0.0     0.0                                    
 146  147                 0.0      0.129       0.0                             0.0     0.0                                    
 146  147                 0.0     0.1298       0.0                             0.0     0.0                                    
 146  147                 0.0     0.1297       0.0                             0.0     0.0                                    
 147  137              0.0132     0.0481   0.00025                             0.0     0.0                                    
 147  137              0.0146     0.0534   0.00028                             0.0     0.0                                    
 148  146              0.0029     0.0122   0.01108                             0.0     0.0                                    
 148  149                 0.0     0.0933       0.0                             0.0     0.0                                    
 148  149                 0.0     0.0933       0.0                             0.0     0.0                                    
 148  149                 0.0     0.0933       0.0                             0.0     0.0                                    
 148  149                 0.0     0.0933       0.0                             0.0     0.0                                    
 150  127              0.0014     0.0155    0.5075                             0.0     0.0                                    
 151  152                 0.0      0.125       0.0                             0.0     0.0                                    
 153  152              0.1291     0.3226   0.00015                             0.0     0.0                                    
 153  152              0.1291     0.3226   0.00015                             0.0     0.0                                    
 153  152              0.1291     0.3226   0.00015                             0.0     0.0                                    
 154  152              0.1173     0.2933   0.00015                             0.0     0.0                                    
 154  152              0.1173     0.2933   0.00015                             0.0     0.0                                    
 154  152              0.1173     0.2933   0.00015                             0.0     0.0                                    
 155  152              0.0057     0.0142       0.0                             0.0     0.0                                    
 155  152              0.0057     0.0142       0.0                             0.0     0.0                                    
 156  152              0.1408     0.3519   0.00018                             0.0     0.0                                    
 156  152              0.1408     0.3519   0.00018                             0.0     0.0                                    
 157  162              0.1191     0.3836    0.0002                             0.0     0.0                                    
 157  162              0.1191     0.3836    0.0002                             0.0     0.0                                    
 158  162              0.1191     0.3836    0.0002                             0.0     0.0                                    
 158  162              0.1191     0.3836    0.0002                             0.0     0.0                                    
 159  162              0.0935     0.3012   0.00015                             0.0     0.0                                    
 159  162              0.0935     0.3012   0.00015                             0.0     0.0                                    
 161  160                 0.0     0.0667       0.0                             0.0     0.0                                    
 161  160                 0.0     0.0667       0.0                             0.0     0.0                                    
 161  162              0.0217     0.0543     3e-05                             0.0     0.0                                    
 161  163              0.0217     0.0543     3e-05                             0.0     0.0                                    
 161  164              0.0381     0.0953     5e-05                             0.0     0.0                                    
 161  164              0.0381     0.0953     5e-05                             0.0     0.0                                    
 161  165              0.0117     0.0293     3e-05                             0.0     0.0                                    
 161  165              0.0117     0.0293     3e-05                             0.0     0.0                                    
 161  166              0.1818     0.4546   0.00023                             0.0     0.0                                    
 161  166              0.1818     0.4546   0.00023                             0.0     0.0                                    
 161  167              0.0264      0.066     3e-05                             0.0     0.0                                    
 161  167              0.0264      0.066     3e-05                             0.0     0.0                                    
 161  168              0.0266     0.0666     3e-05                             0.0     0.0                                    
 161  168              0.0266     0.0666     3e-05                             0.0     0.0                                    
 162  160                 0.0     0.1333       0.0                             0.0     0.0                                    
 162  160                 0.0     0.1333       0.0                             0.0     0.0                                    
 169  170              0.0014     0.0102   0.00918                             0.0     0.0                                    
 169  170              0.0014     0.0102   0.00918                             0.0     0.0                                    
 169  171              0.0213     0.0866   0.03878                             0.0     0.0                                    
 169  171              0.0213     0.0866   0.03878                             0.0     0.0                                    
 169  179              0.0032     0.0104   0.00473                             0.0     0.0                                    
 169  187                 0.0     0.0127       0.0                             0.0     0.0                                    
 169  196              0.0207     0.0989   0.04533                             0.0     0.0                                    
 169  196              0.0207     0.0989   0.04533                             0.0     0.0                                    
 170  140              0.0326     0.1755       0.0                             0.0     0.0                                    
 170  188                 0.0     0.1318       0.0                             0.0     0.0                                    
 171  178               0.003     0.0175   0.00825                             0.0     0.0                                    
 172  171                 0.0      0.001       0.0                             0.0     0.0                                    
 172  177              0.0284     0.1471   0.00073                             0.0     0.0                                    
 172  177              0.0284     0.1471   0.00073                             0.0     0.0                                    
 173  172              0.0207     0.1514    0.0008                             0.0     0.0                                    
 174  173                 0.0     0.2222       0.0                             0.0     0.0                                    
 175  172              0.0407     0.1652    0.0008                             0.0     0.0                                    
 176  175                 0.0     0.3333       0.0                             0.0     0.0                                    
 177  186                 0.0     0.3939       0.0                             0.0     0.0                                    
 178  189                 0.0     0.0833       0.0                             0.0     0.0                                    
 179  180              0.0195     0.1006   0.04558                             0.0     0.0                                    
 179  180              0.0195     0.1006   0.04558                             0.0     0.0                                    
 179  183              0.0199     0.1025   0.04568                             0.0     0.0                                    
 179  183              0.0199     0.1025   0.04568                             0.0     0.0                                    
 181  180                 0.0     0.0833       0.0                             0.0     0.0                                    
 182  181              0.0088     0.0284     3e-05                             0.0     0.0                                    
 182  181              0.0088     0.0284     3e-05                             0.0     0.0                                    
 182  181              0.0088     0.0284     3e-05                             0.0     0.0                                    
 184  183                 0.0     0.1667       0.0                             0.0     0.0                                    
 185  184              0.0117     0.0293     3e-05                             0.0     0.0                                    
 185  184              0.0117     0.0293     3e-05                             0.0     0.0                                    
 187  126              0.0012     0.0189    0.6975                             0.0     0.0                                    
 190  195              0.1091     0.1999    0.0001                             0.0     0.0                                    
 190  195              0.1091     0.1999    0.0001                             0.0     0.0                                    
 191  195              0.0752     0.1377     5e-05                             0.0     0.0                                    
 191  195              0.0752     0.1377     5e-05                             0.0     0.0                                    
 191  195              0.0752     0.1377     5e-05                             0.0     0.0                                    
 192  195              0.2544     0.4662    0.0002                             0.0     0.0                                    
 192  195              0.2544     0.4662    0.0002                             0.0     0.0                                    
 193  195               0.154     0.2823   0.00013                             0.0     0.0                                    
 193  195               0.154     0.2823   0.00013                             0.0     0.0                                    
 194  195              0.2023     0.3708   0.00018                             0.0     0.0                                    
 194  195              0.2023     0.3708   0.00018                             0.0     0.0                                    
 194  195              0.2023     0.3708   0.00018                             0.0     0.0                                    
 195  196                 0.0     0.1429       0.0                             0.0     0.0                                    
 197  199                 0.0      0.352       0.0                             0.0     0.0                                    
 198  199                 0.0      0.352       0.0                             0.0     0.0                                    
 200  199              0.0141      0.062    0.0003                             0.0     0.0                                    
 201  200                 0.0     0.0667       0.0                             0.0     0.0                                    
 202  201              0.0014     0.0001   0.00938                             0.0     0.0                                    
...
-999
END OF DATA
